<?xml version="1.0" encoding="UTF-8"?>

<!-- generated on 2024-02-29 15:37:14 by Eclipse SUMO netedit Version 1.18.0
<configuration xmlns:xsi="http://www.w3.org/2001/XMLSchema-instance" xsi:noNamespaceSchemaLocation="http://sumo.dlr.de/xsd/neteditConfiguration.xsd">

    <input>
        <sumocfg-file value="C:\course\PhD\charging+autnoms\simulations\loop1.sumocfg"/>
        <additional-files value="C:\course\PhD\charging+autnoms\simulations\loop1.add.xml"/>
        <route-files value="C:\course\PhD\charging+autnoms\simulations\loop1.rou.xml"/>
        <sumo-net-file value="C:\course\PhD\charging+autnoms\simulations\loop1.net.xml"/>
    </input>

    <output>
        <output-file value="C:\course\PhD\charging+autnoms\simulations\loop1.net.xml"/>
    </output>

    <processing>
        <geometry.min-radius.fix.railways value="false"/>
        <geometry.max-grade.fix value="false"/>
        <offset.disable-normalization value="true"/>
        <lefthand value="0"/>
    </processing>

    <junctions>
        <no-turnarounds value="true"/>
        <junctions.corner-detail value="5"/>
        <junctions.limit-turn-speed value="5.50"/>
        <rectangular-lane-cut value="0"/>
    </junctions>

    <pedestrian>
        <walkingareas value="0"/>
    </pedestrian>

</configuration>
-->

<net version="1.16" junctionCornerDetail="5" limitTurnSpeed="5.50" xmlns:xsi="http://www.w3.org/2001/XMLSchema-instance" xsi:noNamespaceSchemaLocation="http://sumo.dlr.de/xsd/net_file.xsd">

    <location netOffset="0.00,0.00" convBoundary="0.00,0.00,1000.00,1000.00" origBoundary="-10000000000.00,-10000000000.00,10000000000.00,10000000000.00" projParameter="!"/>

    <edge id=":J0_0" function="internal">
        <lane id=":J0_0_0" index="0" speed="7.66" length="12.90" shape="-8.00,0.00 -7.50,-3.50 -6.00,-6.00 -3.50,-7.50 0.00,-8.00"/>
        <lane id=":J0_0_1" index="1" speed="6.08" length="7.74" shape="-4.80,0.00 -4.50,-2.10 -3.60,-3.60 -2.10,-4.50 0.00,-4.80"/>
        <lane id=":J0_0_2" index="2" disallow="evehicle" speed="3.90" length="2.58" shape="-1.60,0.00 -1.50,-0.70 -1.20,-1.20 -0.70,-1.50 0.00,-1.60"/>
    </edge>
    <edge id=":J1_0" function="internal">
        <lane id=":J1_0_0" index="0" speed="7.66" length="12.90" shape="1000.00,-8.00 1003.50,-7.50 1006.00,-6.00 1007.50,-3.50 1008.00,0.00"/>
        <lane id=":J1_0_1" index="1" speed="6.08" length="7.74" shape="1000.00,-4.80 1002.10,-4.50 1003.60,-3.60 1004.50,-2.10 1004.80,0.00"/>
        <lane id=":J1_0_2" index="2" disallow="evehicle" speed="3.90" length="2.58" shape="1000.00,-1.60 1000.70,-1.50 1001.20,-1.20 1001.50,-0.70 1001.60,0.00"/>
    </edge>
    <edge id=":J2_0" function="internal">
        <lane id=":J2_0_0" index="0" speed="7.66" length="12.90" shape="1008.00,1000.00 1007.50,1003.50 1006.00,1006.00 1003.50,1007.50 1000.00,1008.00"/>
        <lane id=":J2_0_1" index="1" speed="6.08" length="7.74" shape="1004.80,1000.00 1004.50,1002.10 1003.60,1003.60 1002.10,1004.50 1000.00,1004.80"/>
        <lane id=":J2_0_2" index="2" disallow="evehicle" speed="3.90" length="2.58" shape="1001.60,1000.00 1001.50,1000.70 1001.20,1001.20 1000.70,1001.50 1000.00,1001.60"/>
    </edge>
    <edge id=":J3_0" function="internal">
        <lane id=":J3_0_0" index="0" speed="7.66" length="12.90" shape="0.00,1008.00 -3.50,1007.50 -6.00,1006.00 -7.50,1003.50 -8.00,1000.00"/>
        <lane id=":J3_0_1" index="1" speed="6.08" length="7.74" shape="0.00,1004.80 -2.10,1004.50 -3.60,1003.60 -4.50,1002.10 -4.80,1000.00"/>
        <lane id=":J3_0_2" index="2" disallow="evehicle" speed="3.90" length="2.58" shape="0.00,1001.60 -0.70,1001.50 -1.20,1001.20 -1.50,1000.70 -1.60,1000.00"/>
    </edge>

    <edge id="E0" from="J0" to="J1" priority="-1">
        <lane id="E0_0" index="0" speed="22.00" length="1000.00" shape="0.00,-8.00 1000.00,-8.00"/>
        <lane id="E0_1" index="1" speed="20.00" length="1000.00" shape="0.00,-4.80 1000.00,-4.80"/>
        <lane id="E0_2" index="2" disallow="evehicle" speed="30.00" length="1000.00" shape="0.00,-1.60 1000.00,-1.60"/>
    </edge>
    <edge id="E1" from="J1" to="J2" priority="-1">
        <lane id="E1_0" index="0" speed="22.00" length="1000.00" shape="1008.00,0.00 1008.00,1000.00"/>
        <lane id="E1_1" index="1" speed="20.00" length="1000.00" shape="1004.80,0.00 1004.80,1000.00"/>
        <lane id="E1_2" index="2" disallow="evehicle" speed="30.00" length="1000.00" shape="1001.60,0.00 1001.60,1000.00"/>
    </edge>
    <edge id="E2" from="J2" to="J3" priority="-1">
        <lane id="E2_0" index="0" speed="22.00" length="1000.00" shape="1000.00,1008.00 0.00,1008.00"/>
        <lane id="E2_1" index="1" speed="20.00" length="1000.00" shape="1000.00,1004.80 0.00,1004.80"/>
        <lane id="E2_2" index="2" disallow="evehicle" speed="30.00" length="1000.00" shape="1000.00,1001.60 0.00,1001.60"/>
    </edge>
    <edge id="E3" from="J3" to="J0" priority="-1">
        <lane id="E3_0" index="0" speed="22.00" length="1000.00" shape="-8.00,1000.00 -8.00,0.00"/>
        <lane id="E3_1" index="1" speed="20.00" length="1000.00" shape="-4.80,1000.00 -4.80,0.00"/>
        <lane id="E3_2" index="2" disallow="evehicle" speed="30.00" length="1000.00" shape="-1.60,1000.00 -1.60,0.00"/>
    </edge>

    <junction id="J0" type="priority" x="0.00" y="0.00" incLanes="E3_0 E3_1 E3_2" intLanes=":J0_0_0 :J0_0_1 :J0_0_2" shape="-9.60,0.00 0.00,0.00 0.00,-9.60 -2.93,-9.33 -5.33,-8.53 -7.20,-7.20 -8.53,-5.33 -9.33,-2.93">
        <request index="0" response="000" foes="000" cont="0"/>
        <request index="1" response="000" foes="000" cont="0"/>
        <request index="2" response="000" foes="000" cont="0"/>
    </junction>
    <junction id="J1" type="priority" x="1000.00" y="0.00" incLanes="E0_0 E0_1 E0_2" intLanes=":J1_0_0 :J1_0_1 :J1_0_2" shape="1000.00,0.00 1009.60,0.00 1009.33,-2.93 1008.53,-5.33 1007.20,-7.20 1005.33,-8.53 1002.93,-9.33 1000.00,-9.60">
        <request index="0" response="000" foes="000" cont="0"/>
        <request index="1" response="000" foes="000" cont="0"/>
        <request index="2" response="000" foes="000" cont="0"/>
    </junction>
    <junction id="J2" type="priority" x="1000.00" y="1000.00" incLanes="E1_0 E1_1 E1_2" intLanes=":J2_0_0 :J2_0_1 :J2_0_2" shape="1009.60,1000.00 1000.00,1000.00 1000.00,1009.60 1002.93,1009.33 1005.33,1008.53 1007.20,1007.20 1008.53,1005.33 1009.33,1002.93">
        <request index="0" response="000" foes="000" cont="0"/>
        <request index="1" response="000" foes="000" cont="0"/>
        <request index="2" response="000" foes="000" cont="0"/>
    </junction>
    <junction id="J3" type="priority" x="0.00" y="1000.00" incLanes="E2_0 E2_1 E2_2" intLanes=":J3_0_0 :J3_0_1 :J3_0_2" shape="0.00,1009.60 0.00,1000.00 -9.60,1000.00 -9.33,1002.93 -8.53,1005.33 -7.20,1007.20 -5.33,1008.53 -2.93,1009.33">
        <request index="0" response="000" foes="000" cont="0"/>
        <request index="1" response="000" foes="000" cont="0"/>
        <request index="2" response="000" foes="000" cont="0"/>
    </junction>

    <connection from="E0" to="E1" fromLane="0" toLane="0" via=":J1_0_0" dir="l" state="M"/>
    <connection from="E0" to="E1" fromLane="1" toLane="1" via=":J1_0_1" dir="l" state="M"/>
    <connection from="E0" to="E1" fromLane="2" toLane="2" via=":J1_0_2" dir="l" state="M"/>
    <connection from="E1" to="E2" fromLane="0" toLane="0" via=":J2_0_0" dir="l" state="M"/>
    <connection from="E1" to="E2" fromLane="1" toLane="1" via=":J2_0_1" dir="l" state="M"/>
    <connection from="E1" to="E2" fromLane="2" toLane="2" via=":J2_0_2" dir="l" state="M"/>
    <connection from="E2" to="E3" fromLane="0" toLane="0" via=":J3_0_0" dir="l" state="M"/>
    <connection from="E2" to="E3" fromLane="1" toLane="1" via=":J3_0_1" dir="l" state="M"/>
    <connection from="E2" to="E3" fromLane="2" toLane="2" via=":J3_0_2" dir="l" state="M"/>
    <connection from="E3" to="E0" fromLane="0" toLane="0" via=":J0_0_0" dir="l" state="M"/>
    <connection from="E3" to="E0" fromLane="1" toLane="1" via=":J0_0_1" dir="l" state="M"/>
    <connection from="E3" to="E0" fromLane="2" toLane="2" via=":J0_0_2" dir="l" state="M"/>

    <connection from=":J0_0" to="E0" fromLane="0" toLane="0" dir="l" state="M"/>
    <connection from=":J0_0" to="E0" fromLane="1" toLane="1" dir="l" state="M"/>
    <connection from=":J0_0" to="E0" fromLane="2" toLane="2" dir="l" state="M"/>
    <connection from=":J1_0" to="E1" fromLane="0" toLane="0" dir="l" state="M"/>
    <connection from=":J1_0" to="E1" fromLane="1" toLane="1" dir="l" state="M"/>
    <connection from=":J1_0" to="E1" fromLane="2" toLane="2" dir="l" state="M"/>
    <connection from=":J2_0" to="E2" fromLane="0" toLane="0" dir="l" state="M"/>
    <connection from=":J2_0" to="E2" fromLane="1" toLane="1" dir="l" state="M"/>
    <connection from=":J2_0" to="E2" fromLane="2" toLane="2" dir="l" state="M"/>
    <connection from=":J3_0" to="E3" fromLane="0" toLane="0" dir="l" state="M"/>
    <connection from=":J3_0" to="E3" fromLane="1" toLane="1" dir="l" state="M"/>
    <connection from=":J3_0" to="E3" fromLane="2" toLane="2" dir="l" state="M"/>

</net>
