<?xml version="1.0" encoding="UTF-8"?>

<!-- generated on 2025-03-13 23:20:04 by Eclipse SUMO netedit Version 1.22.0
<neteditConfiguration xmlns:xsi="http://www.w3.org/2001/XMLSchema-instance" xsi:noNamespaceSchemaLocation="http://sumo.dlr.de/xsd/neteditConfiguration.xsd">

    <input>
        <sumocfg-file value="D:\Desktop\Pod\Mobile_Test\test.sumocfg"/>
        <additional-files value="D:\Desktop\Pod\Mobile_Test\test.add.xml"/>
        <route-files value="D:\Desktop\Pod\Mobile_Test\loop1.rou.xml"/>
        <sumo-net-file value="D:\Desktop\Pod\Mobile_Test\test.net.xml"/>
    </input>

    <output>
        <output-file value="D:\Desktop\Pod\Mobile_Test\test.net.xml"/>
    </output>

    <processing>
        <geometry.min-radius.fix.railways value="false"/>
        <geometry.max-grade.fix value="false"/>
        <offset.disable-normalization value="true"/>
        <lefthand value="0"/>
    </processing>

    <junctions>
        <no-turnarounds value="true"/>
        <junctions.corner-detail value="5"/>
        <junctions.limit-turn-speed value="5.50"/>
        <rectangular-lane-cut value="0"/>
    </junctions>

    <pedestrian>
        <walkingareas value="0"/>
    </pedestrian>

</neteditConfiguration>
-->

<net version="1.20" junctionCornerDetail="5" limitTurnSpeed="5.50" xmlns:xsi="http://www.w3.org/2001/XMLSchema-instance" xsi:noNamespaceSchemaLocation="http://sumo.dlr.de/xsd/net_file.xsd">

    <location netOffset="0.00,0.00" convBoundary="0.00,0.00,2000.00,2000.00" origBoundary="-10000000000.00,-10000000000.00,10000000000.00,10000000000.00" projParameter="!"/>

    <edge id=":J0_0" function="internal">
        <lane id=":J0_0_0" index="0" speed="7.66" length="12.90" shape="-8.00,0.00 -7.50,-3.50 -6.00,-6.00 -3.50,-7.50 0.00,-8.00"/>
        <lane id=":J0_0_1" index="1" speed="6.08" length="7.74" shape="-4.80,0.00 -4.50,-2.10 -3.60,-3.60 -2.10,-4.50 0.00,-4.80"/>
        <lane id=":J0_0_2" index="2" disallow="evehicle" speed="3.90" length="2.58" shape="-1.60,0.00 -1.50,-0.70 -1.20,-1.20 -0.70,-1.50 0.00,-1.60"/>
    </edge>
    <edge id=":J1_0" function="internal">
        <lane id=":J1_0_0" index="0" speed="22.00" length="17.60" shape="996.00,-8.00 1013.60,-8.00"/>
    </edge>
    <edge id=":J1_1" function="internal">
        <lane id=":J1_1_0" index="0" speed="9.26" length="19.35" shape="996.00,-8.00 1001.25,-7.25 1005.00,-5.00 1007.25,-1.25 1008.00,4.00"/>
    </edge>
    <edge id=":J1_2" function="internal">
        <lane id=":J1_2_0" index="0" speed="20.00" length="17.60" shape="996.00,-4.80 1013.60,-4.80"/>
    </edge>
    <edge id=":J1_3" function="internal">
        <lane id=":J1_3_0" index="0" speed="8.00" length="14.19" shape="996.00,-4.80 999.85,-4.25 1002.60,-2.60 1004.25,0.15 1004.80,4.00"/>
    </edge>
    <edge id=":J1_4" function="internal">
        <lane id=":J1_4_0" index="0" disallow="evehicle" speed="30.00" length="17.60" shape="996.00,-1.60 1013.60,-1.60"/>
    </edge>
    <edge id=":J1_5" function="internal">
        <lane id=":J1_5_0" index="0" disallow="evehicle" speed="6.51" length="9.03" shape="996.00,-1.60 998.45,-1.25 1000.20,-0.20 1001.25,1.55 1001.60,4.00"/>
    </edge>
    <edge id=":J2_0" function="internal">
        <lane id=":J2_0_0" index="0" speed="6.51" length="9.03" shape="1013.60,1008.00 1011.15,1008.35 1009.40,1009.40 1008.35,1011.15 1008.00,1013.60"/>
    </edge>
    <edge id=":J2_1" function="internal">
        <lane id=":J2_1_0" index="0" speed="22.00" length="17.60" shape="1013.60,1008.00 996.00,1008.00"/>
    </edge>
    <edge id=":J2_2" function="internal">
        <lane id=":J2_2_0" index="0" speed="8.00" length="14.19" shape="1013.60,1004.80 1009.75,1005.35 1007.00,1007.00 1005.35,1009.75 1004.80,1013.60"/>
    </edge>
    <edge id=":J2_3" function="internal">
        <lane id=":J2_3_0" index="0" speed="20.00" length="17.60" shape="1013.60,1004.80 996.00,1004.80"/>
    </edge>
    <edge id=":J2_4" function="internal">
        <lane id=":J2_4_0" index="0" disallow="evehicle" speed="9.26" length="19.35" shape="1013.60,1001.60 1008.35,1002.35 1004.60,1004.60 1002.35,1008.35 1001.60,1013.60"/>
    </edge>
    <edge id=":J2_5" function="internal">
        <lane id=":J2_5_0" index="0" disallow="evehicle" speed="30.00" length="17.60" shape="1013.60,1001.60 996.00,1001.60"/>
    </edge>
    <edge id=":J2_6" function="internal">
        <lane id=":J2_6_0" index="0" speed="22.00" length="17.60" shape="1008.00,996.00 1008.00,1013.60"/>
    </edge>
    <edge id=":J2_7" function="internal">
        <lane id=":J2_7_0" index="0" speed="9.26" length="19.35" shape="1008.00,996.00 1007.25,1001.25 1005.00,1005.00 1001.25,1007.25 996.00,1008.00"/>
    </edge>
    <edge id=":J2_8" function="internal">
        <lane id=":J2_8_0" index="0" speed="20.00" length="17.60" shape="1004.80,996.00 1004.80,1013.60"/>
    </edge>
    <edge id=":J2_9" function="internal">
        <lane id=":J2_9_0" index="0" speed="8.00" length="14.19" shape="1004.80,996.00 1004.25,999.85 1002.60,1002.60 999.85,1004.25 996.00,1004.80"/>
    </edge>
    <edge id=":J2_10" function="internal">
        <lane id=":J2_10_0" index="0" disallow="evehicle" speed="30.00" length="17.60" shape="1001.60,996.00 1001.60,1013.60"/>
    </edge>
    <edge id=":J2_11" function="internal">
        <lane id=":J2_11_0" index="0" disallow="evehicle" speed="6.51" length="9.03" shape="1001.60,996.00 1001.25,998.45 1000.20,1000.20 998.45,1001.25 996.00,1001.60"/>
    </edge>
    <edge id=":J3_0" function="internal">
        <lane id=":J3_0_0" index="0" speed="22.00" length="17.60" shape="-8.00,1013.60 -8.00,996.00"/>
        <lane id=":J3_0_1" index="1" speed="20.00" length="17.60" shape="-4.80,1013.60 -4.80,996.00"/>
        <lane id=":J3_0_2" index="2" disallow="evehicle" speed="30.00" length="17.60" shape="-1.60,1013.60 -1.60,996.00"/>
    </edge>
    <edge id=":J3_3" function="internal">
        <lane id=":J3_3_0" index="0" speed="9.26" length="3.91" shape="4.00,1008.00 0.13,1007.45"/>
        <lane id=":J3_3_1" index="1" speed="8.00" length="3.89" shape="4.00,1004.80 0.15,1004.25"/>
        <lane id=":J3_3_2" index="2" disallow="evehicle" speed="6.51" length="4.11" shape="4.00,1001.60 1.55,1001.25 0.15,1000.41"/>
    </edge>
    <edge id=":J3_6" function="internal">
        <lane id=":J3_6_0" index="0" speed="9.26" length="15.44" shape="0.13,1007.45 -1.25,1007.25 -5.00,1005.00 -7.25,1001.25 -8.00,996.00"/>
        <lane id=":J3_6_1" index="0" speed="8.00" length="10.30" shape="0.15,1004.25 -2.60,1002.60 -4.25,999.85 -4.80,996.00"/>
        <lane id=":J3_6_2" index="0" disallow="evehicle" speed="6.51" length="4.93" shape="0.15,1000.41 -0.20,1000.20 -1.25,998.45 -1.60,996.00"/>
    </edge>
    <edge id=":J4_0" function="internal">
        <lane id=":J4_0_0" index="0" speed="7.66" length="12.90" shape="2000.00,-8.00 2003.50,-7.50 2006.00,-6.00 2007.50,-3.50 2008.00,0.00"/>
        <lane id=":J4_0_1" index="1" speed="6.08" length="7.74" shape="2000.00,-4.80 2002.10,-4.50 2003.60,-3.60 2004.50,-2.10 2004.80,0.00"/>
        <lane id=":J4_0_2" index="2" disallow="evehicle" speed="3.90" length="2.58" shape="2000.00,-1.60 2000.70,-1.50 2001.20,-1.20 2001.50,-0.70 2001.60,0.00"/>
    </edge>
    <edge id=":J5_0" function="internal">
        <lane id=":J5_0_0" index="0" speed="22.00" length="17.60" shape="2008.00,996.00 2008.00,1013.60"/>
    </edge>
    <edge id=":J5_1" function="internal">
        <lane id=":J5_1_0" index="0" speed="9.26" length="19.35" shape="2008.00,996.00 2007.25,1001.25 2005.00,1005.00 2001.25,1007.25 1996.00,1008.00"/>
    </edge>
    <edge id=":J5_2" function="internal">
        <lane id=":J5_2_0" index="0" speed="20.00" length="17.60" shape="2004.80,996.00 2004.80,1013.60"/>
    </edge>
    <edge id=":J5_3" function="internal">
        <lane id=":J5_3_0" index="0" speed="8.00" length="14.19" shape="2004.80,996.00 2004.25,999.85 2002.60,1002.60 1999.85,1004.25 1996.00,1004.80"/>
    </edge>
    <edge id=":J5_4" function="internal">
        <lane id=":J5_4_0" index="0" disallow="evehicle" speed="30.00" length="17.60" shape="2001.60,996.00 2001.60,1013.60"/>
    </edge>
    <edge id=":J5_5" function="internal">
        <lane id=":J5_5_0" index="0" disallow="evehicle" speed="6.51" length="9.03" shape="2001.60,996.00 2001.25,998.45 2000.20,1000.20 1998.45,1001.25 1996.00,1001.60"/>
    </edge>
    <edge id=":J6_0" function="internal">
        <lane id=":J6_0_0" index="0" speed="7.66" length="12.90" shape="2008.00,2000.00 2007.50,2003.50 2006.00,2006.00 2003.50,2007.50 2000.00,2008.00"/>
        <lane id=":J6_0_1" index="1" speed="6.08" length="7.74" shape="2004.80,2000.00 2004.50,2002.10 2003.60,2003.60 2002.10,2004.50 2000.00,2004.80"/>
        <lane id=":J6_0_2" index="2" disallow="evehicle" speed="3.90" length="2.58" shape="2001.60,2000.00 2001.50,2000.70 2001.20,2001.20 2000.70,2001.50 2000.00,2001.60"/>
    </edge>
    <edge id=":J7_0" function="internal">
        <lane id=":J7_0_0" index="0" speed="22.00" length="17.60" shape="1013.60,2008.00 996.00,2008.00"/>
        <lane id=":J7_0_1" index="1" speed="20.00" length="17.60" shape="1013.60,2004.80 996.00,2004.80"/>
        <lane id=":J7_0_2" index="2" disallow="evehicle" speed="30.00" length="17.60" shape="1013.60,2001.60 996.00,2001.60"/>
    </edge>
    <edge id=":J7_3" function="internal">
        <lane id=":J7_3_0" index="0" speed="9.26" length="3.91" shape="1008.00,1996.00 1007.45,1999.87"/>
        <lane id=":J7_3_1" index="1" speed="8.00" length="3.89" shape="1004.80,1996.00 1004.25,1999.85"/>
        <lane id=":J7_3_2" index="2" disallow="evehicle" speed="6.51" length="4.11" shape="1001.60,1996.00 1001.25,1998.45 1000.41,1999.85"/>
    </edge>
    <edge id=":J7_6" function="internal">
        <lane id=":J7_6_0" index="0" speed="9.26" length="15.44" shape="1007.45,1999.87 1007.25,2001.25 1005.00,2005.00 1001.25,2007.25 996.00,2008.00"/>
        <lane id=":J7_6_1" index="0" speed="8.00" length="10.30" shape="1004.25,1999.85 1002.60,2002.60 999.85,2004.25 996.00,2004.80"/>
        <lane id=":J7_6_2" index="0" disallow="evehicle" speed="6.51" length="4.93" shape="1000.41,1999.85 1000.20,2000.20 998.45,2001.25 996.00,2001.60"/>
    </edge>
    <edge id=":J8_0" function="internal">
        <lane id=":J8_0_0" index="0" speed="7.66" length="12.90" shape="0.00,2008.00 -3.50,2007.50 -6.00,2006.00 -7.50,2003.50 -8.00,2000.00"/>
        <lane id=":J8_0_1" index="1" speed="6.08" length="7.74" shape="0.00,2004.80 -2.10,2004.50 -3.60,2003.60 -4.50,2002.10 -4.80,2000.00"/>
        <lane id=":J8_0_2" index="2" disallow="evehicle" speed="3.90" length="2.58" shape="0.00,2001.60 -0.70,2001.50 -1.20,2001.20 -1.50,2000.70 -1.60,2000.00"/>
    </edge>

    <edge id="E0" from="J0" to="J1" priority="-1">
        <lane id="E0_0" index="0" speed="22.00" length="996.00" shape="0.00,-8.00 996.00,-8.00"/>
        <lane id="E0_1" index="1" speed="20.00" length="996.00" shape="0.00,-4.80 996.00,-4.80"/>
        <lane id="E0_2" index="2" disallow="evehicle" speed="30.00" length="996.00" shape="0.00,-1.60 996.00,-1.60"/>
    </edge>
    <edge id="E1" from="J1" to="J2" priority="-1">
        <lane id="E1_0" index="0" speed="22.00" length="992.00" shape="1008.00,4.00 1008.00,996.00"/>
        <lane id="E1_1" index="1" speed="20.00" length="992.00" shape="1004.80,4.00 1004.80,996.00"/>
        <lane id="E1_2" index="2" disallow="evehicle" speed="30.00" length="992.00" shape="1001.60,4.00 1001.60,996.00"/>
    </edge>
    <edge id="E10" from="J7" to="J8" priority="-1">
        <lane id="E10_0" index="0" speed="22.00" length="996.00" shape="996.00,2008.00 0.00,2008.00"/>
        <lane id="E10_1" index="1" speed="20.00" length="996.00" shape="996.00,2004.80 0.00,2004.80"/>
        <lane id="E10_2" index="2" disallow="evehicle" speed="30.00" length="996.00" shape="996.00,2001.60 0.00,2001.60"/>
    </edge>
    <edge id="E11" from="J8" to="J3" priority="-1">
        <lane id="E11_0" index="0" speed="22.00" length="986.40" shape="-8.00,2000.00 -8.00,1013.60"/>
        <lane id="E11_1" index="1" speed="20.00" length="986.40" shape="-4.80,2000.00 -4.80,1013.60"/>
        <lane id="E11_2" index="2" disallow="evehicle" speed="30.00" length="986.40" shape="-1.60,2000.00 -1.60,1013.60"/>
    </edge>
    <edge id="E2" from="J2" to="J3" priority="-1">
        <lane id="E2_0" index="0" speed="22.00" length="992.00" shape="996.00,1008.00 4.00,1008.00"/>
        <lane id="E2_1" index="1" speed="20.00" length="992.00" shape="996.00,1004.80 4.00,1004.80"/>
        <lane id="E2_2" index="2" disallow="evehicle" speed="30.00" length="992.00" shape="996.00,1001.60 4.00,1001.60"/>
    </edge>
    <edge id="E3" from="J3" to="J0" priority="-1">
        <lane id="E3_0" index="0" speed="22.00" length="996.00" shape="-8.00,996.00 -8.00,0.00"/>
        <lane id="E3_1" index="1" speed="20.00" length="996.00" shape="-4.80,996.00 -4.80,0.00"/>
        <lane id="E3_2" index="2" disallow="evehicle" speed="30.00" length="996.00" shape="-1.60,996.00 -1.60,0.00"/>
    </edge>
    <edge id="E4" from="J1" to="J4" priority="-1">
        <lane id="E4_0" index="0" speed="22.00" length="986.40" shape="1013.60,-8.00 2000.00,-8.00"/>
        <lane id="E4_1" index="1" speed="20.00" length="986.40" shape="1013.60,-4.80 2000.00,-4.80"/>
        <lane id="E4_2" index="2" disallow="evehicle" speed="30.00" length="986.40" shape="1013.60,-1.60 2000.00,-1.60"/>
    </edge>
    <edge id="E5" from="J4" to="J5" priority="-1">
        <lane id="E5_0" index="0" speed="22.00" length="996.00" shape="2008.00,0.00 2008.00,996.00"/>
        <lane id="E5_1" index="1" speed="20.00" length="996.00" shape="2004.80,0.00 2004.80,996.00"/>
        <lane id="E5_2" index="2" disallow="evehicle" speed="30.00" length="996.00" shape="2001.60,0.00 2001.60,996.00"/>
    </edge>
    <edge id="E6" from="J5" to="J2" priority="-1">
        <lane id="E6_0" index="0" speed="22.00" length="982.40" shape="1996.00,1008.00 1013.60,1008.00"/>
        <lane id="E6_1" index="1" speed="20.00" length="982.40" shape="1996.00,1004.80 1013.60,1004.80"/>
        <lane id="E6_2" index="2" disallow="evehicle" speed="30.00" length="982.40" shape="1996.00,1001.60 1013.60,1001.60"/>
    </edge>
    <edge id="E7" from="J5" to="J6" priority="-1">
        <lane id="E7_0" index="0" speed="22.00" length="986.40" shape="2008.00,1013.60 2008.00,2000.00"/>
        <lane id="E7_1" index="1" speed="20.00" length="986.40" shape="2004.80,1013.60 2004.80,2000.00"/>
        <lane id="E7_2" index="2" disallow="evehicle" speed="30.00" length="986.40" shape="2001.60,1013.60 2001.60,2000.00"/>
    </edge>
    <edge id="E8" from="J6" to="J7" priority="-1">
        <lane id="E8_0" index="0" speed="22.00" length="986.40" shape="2000.00,2008.00 1013.60,2008.00"/>
        <lane id="E8_1" index="1" speed="20.00" length="986.40" shape="2000.00,2004.80 1013.60,2004.80"/>
        <lane id="E8_2" index="2" disallow="evehicle" speed="30.00" length="986.40" shape="2000.00,2001.60 1013.60,2001.60"/>
    </edge>
    <edge id="E9" from="J2" to="J7" priority="-1">
        <lane id="E9_0" index="0" speed="22.00" length="982.40" shape="1008.00,1013.60 1008.00,1996.00"/>
        <lane id="E9_1" index="1" speed="20.00" length="982.40" shape="1004.80,1013.60 1004.80,1996.00"/>
        <lane id="E9_2" index="2" disallow="evehicle" speed="30.00" length="982.40" shape="1001.60,1013.60 1001.60,1996.00"/>
    </edge>

    <junction id="J0" type="priority" x="0.00" y="0.00" incLanes="E3_0 E3_1 E3_2" intLanes=":J0_0_0 :J0_0_1 :J0_0_2" shape="-9.60,0.00 0.00,0.00 0.00,-9.60 -2.93,-9.33 -5.33,-8.53 -7.20,-7.20 -8.53,-5.33 -9.33,-2.93">
        <request index="0" response="000" foes="000" cont="0"/>
        <request index="1" response="000" foes="000" cont="0"/>
        <request index="2" response="000" foes="000" cont="0"/>
    </junction>
    <junction id="J1" type="priority" x="1000.00" y="0.00" incLanes="E0_0 E0_1 E0_2" intLanes=":J1_0_0 :J1_1_0 :J1_2_0 :J1_3_0 :J1_4_0 :J1_5_0" shape="1000.00,4.00 1009.60,4.00 1010.04,1.78 1010.60,1.00 1011.38,0.44 1012.38,0.11 1013.60,0.00 1013.60,-9.60 996.00,-9.60 996.00,0.00 998.22,0.44 999.00,1.00 999.56,1.78 999.89,2.78">
        <request index="0" response="000000" foes="000000" cont="0"/>
        <request index="1" response="010100" foes="010100" cont="0"/>
        <request index="2" response="000000" foes="000010" cont="0"/>
        <request index="3" response="010000" foes="010000" cont="0"/>
        <request index="4" response="000000" foes="001010" cont="0"/>
        <request index="5" response="000000" foes="000000" cont="0"/>
    </junction>
    <junction id="J2" type="unregulated" x="1000.00" y="1000.00" incLanes="E6_0 E6_1 E6_2 E1_0 E1_1 E1_2" intLanes=":J2_0_0 :J2_1_0 :J2_2_0 :J2_3_0 :J2_4_0 :J2_5_0 :J2_6_0 :J2_7_0 :J2_8_0 :J2_9_0 :J2_10_0 :J2_11_0" shape="1000.00,1013.60 1009.60,1013.60 1010.04,1011.38 1010.60,1010.60 1011.38,1010.04 1012.38,1009.71 1013.60,1009.60 1013.60,1000.00 1011.38,999.56 1010.60,999.00 1010.04,998.22 1009.71,997.22 1009.60,996.00 1000.00,996.00 999.56,998.22 999.00,999.00 998.22,999.56 997.22,999.89 996.00,1000.00 996.00,1009.60 998.22,1010.04 999.00,1010.60 999.56,1011.38 999.89,1012.38"/>
    <junction id="J3" type="priority" x="0.00" y="1000.00" incLanes="E11_0 E11_1 E11_2 E2_0 E2_1 E2_2" intLanes=":J3_0_0 :J3_0_1 :J3_0_2 :J3_6_0 :J3_6_1 :J3_6_2" shape="-9.60,1013.60 0.00,1013.60 0.44,1011.38 1.00,1010.60 1.78,1010.04 2.78,1009.71 4.00,1009.60 4.00,1000.00 1.78,999.56 1.00,999.00 0.44,998.22 0.11,997.22 0.00,996.00 -9.60,996.00">
        <request index="0" response="000000" foes="111000" cont="0"/>
        <request index="1" response="000000" foes="111000" cont="0"/>
        <request index="2" response="000000" foes="111000" cont="0"/>
        <request index="3" response="000111" foes="000111" cont="1"/>
        <request index="4" response="000111" foes="000111" cont="1"/>
        <request index="5" response="000111" foes="000111" cont="1"/>
    </junction>
    <junction id="J4" type="priority" x="2000.00" y="0.00" incLanes="E4_0 E4_1 E4_2" intLanes=":J4_0_0 :J4_0_1 :J4_0_2" shape="2000.00,0.00 2009.60,0.00 2009.33,-2.93 2008.53,-5.33 2007.20,-7.20 2005.33,-8.53 2002.93,-9.33 2000.00,-9.60">
        <request index="0" response="000" foes="000" cont="0"/>
        <request index="1" response="000" foes="000" cont="0"/>
        <request index="2" response="000" foes="000" cont="0"/>
    </junction>
    <junction id="J5" type="unregulated" x="2000.00" y="1000.00" incLanes="E5_0 E5_1 E5_2" intLanes=":J5_0_0 :J5_1_0 :J5_2_0 :J5_3_0 :J5_4_0 :J5_5_0" shape="2000.00,1013.60 2009.60,1013.60 2009.60,996.00 2000.00,996.00 1999.56,998.22 1999.00,999.00 1998.22,999.56 1997.22,999.89 1996.00,1000.00 1996.00,1009.60 1998.22,1010.04 1999.00,1010.60 1999.56,1011.38 1999.89,1012.38"/>
    <junction id="J6" type="priority" x="2000.00" y="2000.00" incLanes="E7_0 E7_1 E7_2" intLanes=":J6_0_0 :J6_0_1 :J6_0_2" shape="2009.60,2000.00 2000.00,2000.00 2000.00,2009.60 2002.93,2009.33 2005.33,2008.53 2007.20,2007.20 2008.53,2005.33 2009.33,2002.93">
        <request index="0" response="000" foes="000" cont="0"/>
        <request index="1" response="000" foes="000" cont="0"/>
        <request index="2" response="000" foes="000" cont="0"/>
    </junction>
    <junction id="J7" type="priority" x="1000.00" y="2000.00" incLanes="E8_0 E8_1 E8_2 E9_0 E9_1 E9_2" intLanes=":J7_0_0 :J7_0_1 :J7_0_2 :J7_6_0 :J7_6_1 :J7_6_2" shape="1013.60,2009.60 1013.60,2000.00 1011.38,1999.56 1010.60,1999.00 1010.04,1998.22 1009.71,1997.22 1009.60,1996.00 1000.00,1996.00 999.56,1998.22 999.00,1999.00 998.22,1999.56 997.22,1999.89 996.00,2000.00 996.00,2009.60">
        <request index="0" response="000000" foes="111000" cont="0"/>
        <request index="1" response="000000" foes="111000" cont="0"/>
        <request index="2" response="000000" foes="111000" cont="0"/>
        <request index="3" response="000111" foes="000111" cont="1"/>
        <request index="4" response="000111" foes="000111" cont="1"/>
        <request index="5" response="000111" foes="000111" cont="1"/>
    </junction>
    <junction id="J8" type="priority" x="0.00" y="2000.00" incLanes="E10_0 E10_1 E10_2" intLanes=":J8_0_0 :J8_0_1 :J8_0_2" shape="0.00,2009.60 0.00,2000.00 -9.60,2000.00 -9.33,2002.93 -8.53,2005.33 -7.20,2007.20 -5.33,2008.53 -2.93,2009.33">
        <request index="0" response="000" foes="000" cont="0"/>
        <request index="1" response="000" foes="000" cont="0"/>
        <request index="2" response="000" foes="000" cont="0"/>
    </junction>

    <junction id=":J3_6_0" type="internal" x="0.13" y="1007.45" incLanes=":J3_3_0 E11_0 E11_1 E11_2" intLanes=":J3_0_0 :J3_0_1 :J3_0_2"/>
    <junction id=":J3_6_1" type="internal" x="0.15" y="1004.25" incLanes=":J3_3_1 E11_0 E11_1 E11_2" intLanes=":J3_0_0 :J3_0_1 :J3_0_2"/>
    <junction id=":J3_6_2" type="internal" x="0.15" y="1000.41" incLanes=":J3_3_2 E11_0 E11_1 E11_2" intLanes=":J3_0_0 :J3_0_1 :J3_0_2"/>
    <junction id=":J7_6_0" type="internal" x="1007.45" y="1999.87" incLanes=":J7_3_0 E8_0 E8_1 E8_2" intLanes=":J7_0_0 :J7_0_1 :J7_0_2"/>
    <junction id=":J7_6_1" type="internal" x="1004.25" y="1999.85" incLanes=":J7_3_1 E8_0 E8_1 E8_2" intLanes=":J7_0_0 :J7_0_1 :J7_0_2"/>
    <junction id=":J7_6_2" type="internal" x="1000.41" y="1999.85" incLanes=":J7_3_2 E8_0 E8_1 E8_2" intLanes=":J7_0_0 :J7_0_1 :J7_0_2"/>

    <connection from="E0" to="E4" fromLane="0" toLane="0" via=":J1_0_0" dir="s" state="M"/>
    <connection from="E0" to="E1" fromLane="0" toLane="0" via=":J1_1_0" dir="l" state="m"/>
    <connection from="E0" to="E4" fromLane="1" toLane="1" via=":J1_2_0" dir="s" state="M"/>
    <connection from="E0" to="E1" fromLane="1" toLane="1" via=":J1_3_0" dir="l" state="m"/>
    <connection from="E0" to="E4" fromLane="2" toLane="2" via=":J1_4_0" dir="s" state="M"/>
    <connection from="E0" to="E1" fromLane="2" toLane="2" via=":J1_5_0" dir="l" state="M"/>
    <connection from="E1" to="E9" fromLane="0" toLane="0" via=":J2_6_0" dir="s" state="M"/>
    <connection from="E1" to="E2" fromLane="0" toLane="0" via=":J2_7_0" dir="l" state="M"/>
    <connection from="E1" to="E9" fromLane="1" toLane="1" via=":J2_8_0" dir="s" state="M"/>
    <connection from="E1" to="E2" fromLane="1" toLane="1" via=":J2_9_0" dir="l" state="M"/>
    <connection from="E1" to="E9" fromLane="2" toLane="2" via=":J2_10_0" dir="s" state="M"/>
    <connection from="E1" to="E2" fromLane="2" toLane="2" via=":J2_11_0" dir="l" state="M"/>
    <connection from="E10" to="E11" fromLane="0" toLane="0" via=":J8_0_0" dir="l" state="M"/>
    <connection from="E10" to="E11" fromLane="1" toLane="1" via=":J8_0_1" dir="l" state="M"/>
    <connection from="E10" to="E11" fromLane="2" toLane="2" via=":J8_0_2" dir="l" state="M"/>
    <connection from="E11" to="E3" fromLane="0" toLane="0" via=":J3_0_0" dir="s" state="M"/>
    <connection from="E11" to="E3" fromLane="1" toLane="1" via=":J3_0_1" dir="s" state="M"/>
    <connection from="E11" to="E3" fromLane="2" toLane="2" via=":J3_0_2" dir="s" state="M"/>
    <connection from="E2" to="E3" fromLane="0" toLane="0" via=":J3_3_0" dir="l" state="m"/>
    <connection from="E2" to="E3" fromLane="1" toLane="1" via=":J3_3_1" dir="l" state="m"/>
    <connection from="E2" to="E3" fromLane="2" toLane="2" via=":J3_3_2" dir="l" state="m"/>
    <connection from="E3" to="E0" fromLane="0" toLane="0" via=":J0_0_0" dir="l" state="M"/>
    <connection from="E3" to="E0" fromLane="1" toLane="1" via=":J0_0_1" dir="l" state="M"/>
    <connection from="E3" to="E0" fromLane="2" toLane="2" via=":J0_0_2" dir="l" state="M"/>
    <connection from="E4" to="E5" fromLane="0" toLane="0" via=":J4_0_0" dir="l" state="M"/>
    <connection from="E4" to="E5" fromLane="1" toLane="1" via=":J4_0_1" dir="l" state="M"/>
    <connection from="E4" to="E5" fromLane="2" toLane="2" via=":J4_0_2" dir="l" state="M"/>
    <connection from="E5" to="E7" fromLane="0" toLane="0" via=":J5_0_0" dir="s" state="M"/>
    <connection from="E5" to="E6" fromLane="0" toLane="0" via=":J5_1_0" dir="l" state="M"/>
    <connection from="E5" to="E7" fromLane="1" toLane="1" via=":J5_2_0" dir="s" state="M"/>
    <connection from="E5" to="E6" fromLane="1" toLane="1" via=":J5_3_0" dir="l" state="M"/>
    <connection from="E5" to="E7" fromLane="2" toLane="2" via=":J5_4_0" dir="s" state="M"/>
    <connection from="E5" to="E6" fromLane="2" toLane="2" via=":J5_5_0" dir="l" state="M"/>
    <connection from="E6" to="E9" fromLane="0" toLane="0" via=":J2_0_0" dir="r" state="M"/>
    <connection from="E6" to="E2" fromLane="0" toLane="0" via=":J2_1_0" dir="s" state="M"/>
    <connection from="E6" to="E9" fromLane="1" toLane="1" via=":J2_2_0" dir="r" state="M"/>
    <connection from="E6" to="E2" fromLane="1" toLane="1" via=":J2_3_0" dir="s" state="M"/>
    <connection from="E6" to="E9" fromLane="2" toLane="2" via=":J2_4_0" dir="r" state="M"/>
    <connection from="E6" to="E2" fromLane="2" toLane="2" via=":J2_5_0" dir="s" state="M"/>
    <connection from="E7" to="E8" fromLane="0" toLane="0" via=":J6_0_0" dir="l" state="M"/>
    <connection from="E7" to="E8" fromLane="1" toLane="1" via=":J6_0_1" dir="l" state="M"/>
    <connection from="E7" to="E8" fromLane="2" toLane="2" via=":J6_0_2" dir="l" state="M"/>
    <connection from="E8" to="E10" fromLane="0" toLane="0" via=":J7_0_0" dir="s" state="M"/>
    <connection from="E8" to="E10" fromLane="1" toLane="1" via=":J7_0_1" dir="s" state="M"/>
    <connection from="E8" to="E10" fromLane="2" toLane="2" via=":J7_0_2" dir="s" state="M"/>
    <connection from="E9" to="E10" fromLane="0" toLane="0" via=":J7_3_0" dir="l" state="m"/>
    <connection from="E9" to="E10" fromLane="1" toLane="1" via=":J7_3_1" dir="l" state="m"/>
    <connection from="E9" to="E10" fromLane="2" toLane="2" via=":J7_3_2" dir="l" state="m"/>

    <connection from=":J0_0" to="E0" fromLane="0" toLane="0" dir="l" state="M"/>
    <connection from=":J0_0" to="E0" fromLane="1" toLane="1" dir="l" state="M"/>
    <connection from=":J0_0" to="E0" fromLane="2" toLane="2" dir="l" state="M"/>
    <connection from=":J1_0" to="E4" fromLane="0" toLane="0" dir="s" state="M"/>
    <connection from=":J1_1" to="E1" fromLane="0" toLane="0" dir="l" state="M"/>
    <connection from=":J1_2" to="E4" fromLane="0" toLane="1" dir="s" state="M"/>
    <connection from=":J1_3" to="E1" fromLane="0" toLane="1" dir="l" state="M"/>
    <connection from=":J1_4" to="E4" fromLane="0" toLane="2" dir="s" state="M"/>
    <connection from=":J1_5" to="E1" fromLane="0" toLane="2" dir="l" state="M"/>
    <connection from=":J2_0" to="E9" fromLane="0" toLane="0" dir="r" state="M"/>
    <connection from=":J2_1" to="E2" fromLane="0" toLane="0" dir="s" state="M"/>
    <connection from=":J2_2" to="E9" fromLane="0" toLane="1" dir="r" state="M"/>
    <connection from=":J2_3" to="E2" fromLane="0" toLane="1" dir="s" state="M"/>
    <connection from=":J2_4" to="E9" fromLane="0" toLane="2" dir="r" state="M"/>
    <connection from=":J2_5" to="E2" fromLane="0" toLane="2" dir="s" state="M"/>
    <connection from=":J2_6" to="E9" fromLane="0" toLane="0" dir="s" state="M"/>
    <connection from=":J2_7" to="E2" fromLane="0" toLane="0" dir="l" state="M"/>
    <connection from=":J2_8" to="E9" fromLane="0" toLane="1" dir="s" state="M"/>
    <connection from=":J2_9" to="E2" fromLane="0" toLane="1" dir="l" state="M"/>
    <connection from=":J2_10" to="E9" fromLane="0" toLane="2" dir="s" state="M"/>
    <connection from=":J2_11" to="E2" fromLane="0" toLane="2" dir="l" state="M"/>
    <connection from=":J3_0" to="E3" fromLane="0" toLane="0" dir="s" state="M"/>
    <connection from=":J3_0" to="E3" fromLane="1" toLane="1" dir="s" state="M"/>
    <connection from=":J3_0" to="E3" fromLane="2" toLane="2" dir="s" state="M"/>
    <connection from=":J3_3" to="E3" fromLane="0" toLane="0" via=":J3_6_0" dir="l" state="m"/>
    <connection from=":J3_6" to="E3" fromLane="0" toLane="0" dir="l" state="M"/>
    <connection from=":J3_3" to="E3" fromLane="1" toLane="1" via=":J3_6_1" dir="l" state="m"/>
    <connection from=":J3_6" to="E3" fromLane="1" toLane="1" dir="l" state="M"/>
    <connection from=":J3_3" to="E3" fromLane="2" toLane="2" via=":J3_6_2" dir="l" state="m"/>
    <connection from=":J3_6" to="E3" fromLane="2" toLane="2" dir="l" state="M"/>
    <connection from=":J4_0" to="E5" fromLane="0" toLane="0" dir="l" state="M"/>
    <connection from=":J4_0" to="E5" fromLane="1" toLane="1" dir="l" state="M"/>
    <connection from=":J4_0" to="E5" fromLane="2" toLane="2" dir="l" state="M"/>
    <connection from=":J5_0" to="E7" fromLane="0" toLane="0" dir="s" state="M"/>
    <connection from=":J5_1" to="E6" fromLane="0" toLane="0" dir="l" state="M"/>
    <connection from=":J5_2" to="E7" fromLane="0" toLane="1" dir="s" state="M"/>
    <connection from=":J5_3" to="E6" fromLane="0" toLane="1" dir="l" state="M"/>
    <connection from=":J5_4" to="E7" fromLane="0" toLane="2" dir="s" state="M"/>
    <connection from=":J5_5" to="E6" fromLane="0" toLane="2" dir="l" state="M"/>
    <connection from=":J6_0" to="E8" fromLane="0" toLane="0" dir="l" state="M"/>
    <connection from=":J6_0" to="E8" fromLane="1" toLane="1" dir="l" state="M"/>
    <connection from=":J6_0" to="E8" fromLane="2" toLane="2" dir="l" state="M"/>
    <connection from=":J7_0" to="E10" fromLane="0" toLane="0" dir="s" state="M"/>
    <connection from=":J7_0" to="E10" fromLane="1" toLane="1" dir="s" state="M"/>
    <connection from=":J7_0" to="E10" fromLane="2" toLane="2" dir="s" state="M"/>
    <connection from=":J7_3" to="E10" fromLane="0" toLane="0" via=":J7_6_0" dir="l" state="m"/>